FeederExample/Recursos/Condutores.dss
new linecode.CAB001 r1=2.389,x1=0.524,units=km,rho=2000,normamps=102
new linecode.CAB002 r1=1.564,x1=1.27,units=km,rho=2000,normamps=137
new linecode.CAB003 r1=0.984,x1=0.8,units=km,rho=2000,normamps=184
new linecode.CAB004 r1=0.62,x1=1.5,units=km,rho=2000,normamps=262
new linecode.CAB005 r1=0.389,x1=0.45,units=km,rho=2000,normamps=341
new linecode.CAB006 r1=0.308,x1=0.441,units=km,normamps=396
new linecode.CAB007 r1=0.245,x1=0.197,units=km,normamps=457
new linecode.CAB008 r1=0.195,x1=0.158,units=km,normamps=534
new linecode.CAB101 r1=2.469,x1=2.176,units=km,normamps=110
new linecode.CAB105 r1=0.486,x1=0.427,units=km,normamps=313
new linecode.CAB106 r1=0.386,x1=0.388,units=km,normamps=366
new linecode.CAB201 r1=2.469,x1=2.176,units=km,normamps=113
new linecode.CAB205 r1=0.486,x1=0.427,units=km,normamps=317
new linecode.CAB206 r1=0.386,x1=0.338,units=km,normamps=371
new linecode.CAB609 r1=0.732,x1=0.585,units=km,normamps=141
new linecode.CAB610 r1=0.289,x1=0.255,units=km,normamps=238
new linecode.CAB901 r1=0.991,x1=0.248,units=km,normamps=120
new linecode.CAB902 r1=0.732,x1=0.585,units=km,normamps=175
new linecode.CAB903 r1=0.506,x1=0.443,units=km,normamps=180
new linecode.CAB904 r1=0.289,x1=0.255,units=km,normamps=295
new linecode.CAB905 r1=0.236,x1=0.216,units=km,normamps=425
new linecode.CAB906 r1=0.143,x1=0.13,units=km,normamps=425
new linecode.CAB907 r1=0.188,x1=0.164,units=km,normamps=386
new linecode.CABBT001 r1=3.754,x1=0.4211,units=km,normamps=33
new linecode.CABBT002 r1=1.138,x1=0.3983,units=km,normamps=70
new linecode.CABBT003 r1=2.389,x1=0.524,units=km,normamps=76
new linecode.CABBT004 r1=0.78,x1=0.3791,units=km,normamps=93
new linecode.CABBT005 r1=1.564,x1=1.27,units=km,normamps=101
new linecode.CABBT006 r1=0.984,x1=0.8,units=km,normamps=136
new linecode.CABBT007 r1=0.62,x1=1.5,units=km,normamps=194
new linecode.CABBT008 r1=0.389,x1=0.45,units=km,normamps=252
new linecode.CABBT009 r1=0.308,x1=0.441,units=km,normamps=293
new linecode.CABBT010 r1=0.245,x1=0.197,units=km,normamps=338
new linecode.CABBT011 r1=0.195,x1=0.158,units=km,normamps=394
new linecode.CABBT103 r1=2.469,x1=2.176,units=km,normamps=81
new linecode.CABBT105 r1=1.229,x1=0.3377,units=km,normamps=101
new linecode.CABBT109 r1=0.486,x1=0.427,units=km,normamps=230
new linecode.CABBT110 r1=0.386,x1=0.338,units=km,normamps=270
new linecode.CABBT111 r1=0.306,x1=0.268,units=km,normamps=314
new linecode.CABBT112 r1=0.195,x1=0.1686,units=km,normamps=425
new linecode.CABBT204 r1=2.469,x1=2.176,units=km,normamps=84
new linecode.CABBT205 r1=1.229,x1=0.3961,units=km,normamps=101
new linecode.CABBT206 r1=1.551,x1=1.361,units=km,normamps=112
new linecode.CABBT207 r1=0.975,x1=0.857,units=km,normamps=151
new linecode.CABBT208 r1=0.613,x1=0.537,units=km,normamps=203
new linecode.CABBT209 r1=0.486,x1=0.427,units=km,normamps=233
new linecode.CABBT210 r1=0.386,x1=0.338,units=km,normamps=294
new linecode.CABBT211 r1=0.306,x1=0.268,units=km,normamps=318
new linecode.CABBT212 r1=0.195,x1=0.1686,units=km,normamps=432
new linecode.CABBT503 r1=2.179,x1=0.585,units=km,normamps=82
new linecode.CABBT505 r1=1.369,x1=0.1382,units=km,normamps=101
new linecode.CABBT513 r1=0.289,x1=0.255,units=km,normamps=386
new linecode.CABBT514 r1=0.143,x1=0.1199,units=km,normamps=612
new linecode.CABBT517 r1=0.991,x1=0.248,units=km,normamps=94
new linecode.CABBT518 r1=0.506,x1=0.443,units=km,normamps=138
new linecode.CABBT519 r1=3.514,x1=0.1462,units=km,normamps=48
new linecode.CABBT520 r1=0.188,x1=0.164,units=km,normamps=512
new linecode.CABBT521 r1=0.732,x1=0.585,units=km,normamps=170
new linecode.CABBTH01 r1=1.934,x1=0.001,units=km,normamps=125
new linecode.CABC01 r1=18.325,x1=0.001,units=km,normamps=37
new linecode.CAB r1=0.001,x1=0.001,units=km,normamps=1000
new linecode.CAB009 r1=0.137,x1=0.3816,units=km,normamps=679
new linecode.CAB401 r1=0.8819,x1=0.1562,units=km,normamps=136
new linecode.CAB402 r1=0.6361,x1=0.148,units=km,normamps=116
new linecode.CAB403 r1=0.3805,x1=0.228,units=km,normamps=149
new linecode.CAB404 r1=0.198,x1=0.141,units=km,normamps=375
new linecode.CAB601 r1=1.0445,x1=0.166,units=km,normamps=116
new linecode.CAB602 r1=0.6569,x1=0.151,units=km,normamps=151
new linecode.CAB603 r1=0.5212,x1=0.145,units=km,normamps=171
new linecode.CAB604 r1=0.2782,x1=0.133,units=km,normamps=243
new linecode.CAB605 r1=0.1995,x1=0.124,units=km,normamps=293
new linecode.CAB606 r1=0.3284,x1=0.139,units=km,normamps=222
new linecode.CAB607 r1=0.1409,x1=0.119,units=km,normamps=356
new linecode.CAB608 r1=0.0958,x1=0.112,units=km,normamps=439
new linecode.CAB611 r1=0.0898,x1=0.1201,units=km,normamps=457
new linecode.CABA01 r1=0.9654,x1=0.4679,units=km,normamps=150
new linecode.CABA02 r1=0.622,x1=0.4505,units=km,normamps=210
new linecode.CABA03 r1=0.3027,x1=0.4237,units=km,normamps=325
new linecode.CABA04 r1=0.1903,x1=0.4026,units=km,normamps=420
new linecode.CABA05 r1=0.9869,x1=0.4665,units=km,normamps=189
new linecode.CABA07 r1=0.3641,x1=0.2786,units=km,normamps=344
new linecode.CABA09 r1=0.5039,x1=0.15,units=km,normamps=180
new linecode.CABA10 r1=0.2801,x1=0.14,units=km,normamps=251
new linecode.CABA11 r1=0.1871,x1=0.4025,units=km,normamps=425
new linecode.CABA12 r1=0.1399,x1=0.13,units=km,normamps=425
new linecode.CABBT r1=0.001,x1=0.001,units=km,normamps=1000
new linecode.CABBT012 r1=0.137,x1=0.2763,units=km,normamps=496
new linecode.CABBT101 r1=6.0824,x1=0.4042,units=km,normamps=48
new linecode.CABBT102 r1=3.8389,x1=0.3983,units=km,normamps=64
new linecode.CABBT104 r1=1.908,x1=0.3791,units=km,normamps=82
new linecode.CABBT201 r1=6.094,x1=0.4042,units=km,normamps=25
new linecode.CABBT202 r1=3.8249,x1=0.4035,units=km,normamps=33
new linecode.CABBT203 r1=2.0095,x1=0.3622,units=km,normamps=82
new linecode.CABBT301 r1=3.7256,x1=0.1578,units=km,normamps=61
new linecode.CABBT302 r1=1.1686,x1=0.129,units=km,normamps=70
new linecode.CABBT303 r1=2.3413,x1=0.1424,units=km,normamps=83
new linecode.CABBT304 r1=0.7349,x1=0.1287,units=km,normamps=93
new linecode.CABBT305 r1=1.5222,x1=0.1337,units=km,normamps=109
new linecode.CABBT306 r1=0.8819,x1=0.1318,units=km,normamps=145
new linecode.CABBT307 r1=0.6361,x1=0.1255,units=km,normamps=192
new linecode.CABBT308 r1=0.3805,x1=0.1236,units=km,normamps=258
new linecode.CABBT309 r1=0.3051,x1=0.1208,units=km,normamps=298
new linecode.CABBT310 r1=0.231,x1=0.1015,units=km,normamps=345
new linecode.CABBT311 r1=0.198,x1=0.1129,units=km,normamps=400
new linecode.CABBT312 r1=0.1159,x1=0.1248,units=km,normamps=500
new linecode.CABBT313 r1=0.1747,x1=0.114,units=km,normamps=498
new linecode.CABBT314 r1=0.0871,x1=0.1199,units=km,normamps=789
new linecode.CABBT315 r1=13.0642,x1=0.1804,units=km,normamps=12
new linecode.CABBT316 r1=1.9597,x1=0.1458,units=km,normamps=102
new linecode.CABBT317 r1=0.2201,x1=0.1232,units=km,normamps=427
new linecode.CABBT318 r1=0.1138,x1=0.12,units=km,normamps=660
new linecode.CABBT501 r1=6.1079,x1=0.1578,units=km,normamps=48
new linecode.CABBT502 r1=3.8384,x1=0.1477,units=km,normamps=64
new linecode.CABBT504 r1=2.4156,x1=0.1352,units=km,normamps=85
new linecode.CABBT506 r1=1.9158,x1=0.1334,units=km,normamps=113
new linecode.CABBT507 r1=1.2047,x1=0.1255,units=km,normamps=150
new linecode.CABBT508 r1=1.0445,x1=0.1236,units=km,normamps=201
new linecode.CABBT509 r1=0.6569,x1=0.1208,units=km,normamps=232
new linecode.CABBT510 r1=0.5212,x1=0.1094,units=km,normamps=269
new linecode.CABBT511 r1=0.382,x1=0.117,units=km,normamps=312
new linecode.CABBT512 r1=0.3029,x1=0.1164,units=km,normamps=390
new linecode.CABBT515 r1=0.1399,x1=0.1205,units=km,normamps=186
new linecode.CABBT516 r1=0.2541,x1=0.1191,units=km,normamps=272
new linecode.CABBT802 r1=0.7318,x1=0.0835,units=km,normamps=123
new linecode.CABBT804 r1=0.5059,x1=0.08,units=km,normamps=180
new linecode.CABBT806 r1=0.2156,x1=0.0865,units=km,normamps=225
new linecode.CABBT811 r1=2.1716,x1=0.0821,units=km,normamps=95
new linecode.CABBT812 r1=1.3646,x1=0.0889,units=km,normamps=108
new linecode.CABBT813 r1=0.7318,x1=0.0797,units=km,normamps=160
new linecode.CABBT814 r1=1.3646,x1=0.0833,units=km,normamps=125
new linecode.CABBT815 r1=2.1716,x1=0.0821,units=km,normamps=82
new linecode.CABBT816 r1=1.3643,x1=0.0833,units=km,normamps=125
new linecode.CABBTG01 r1=3.5016,x1=0.082,units=km,normamps=71
new linecode.CABBTG02 r1=2.1716,x1=0.0821,units=km,normamps=95
new linecode.CABBTG03 r1=1.3646,x1=0.0833,units=km,normamps=125
new linecode.CABBTG04 r1=3.5016,x1=0.082,units=km,normamps=71
new linecode.CABBTG05 r1=2.1716,x1=0.0821,units=km,normamps=95
new linecode.CABBTG06 r1=2.1716,x1=0.0903,units=km,normamps=82
new linecode.CABBTG07 r1=0.9873,x1=0.0818,units=km,normamps=110
new linecode.CABBTG08 r1=0.5047,x1=0.08,units=km,normamps=147
new linecode.CABBTG09 r1=0.2895,x1=0.0911,units=km,normamps=201
new linecode.CABBTG10 r1=1.3643,x1=0.0833,units=km,normamps=125
new linecode.CABBTG11 r1=3.5016,x1=0.082,units=km,normamps=71
new linecode.CABBTG12 r1=0.9873,x1=0.0698,units=km,normamps=129
new linecode.CABBTG13 r1=1.3646,x1=0.0833,units=km,normamps=125
!manual
new linecode.CABBTG13_2 r1=1.3646,x1=0.0833,units=km,normamps=125
new linecode.CABBTH02 r1=1.4616,x1=0.001,units=km,normamps=125
new linecode.CABBTH03 r1=0.9771,x1=1.3755,units=km,normamps=125
new linecode.CABBTC02 r1=0.001,x1=0.001,units=km,normamps=100
new linecode.CABD01 r1=6.2665,x1=0.001,units=km,normamps=1000
new linecode.CABD02 r1=6.2665,x1=0.001,units=km,normamps=1000
new linecode.CABD03 r1=6.2665,x1=0.001,units=km,normamps=37
new linecode.CABF01 r1=0.0021,x1=0.001,units=km,normamps=1000
new linecode.CABI01 r1=0.5039,x1=0.15,units=km,normamps=270
new linecode.CABI02 r1=0.2347,x1=0.261,units=km,normamps=432
new linecode.CABMT r1=0.001,x1=0.001,units=km,normamps=1000
new linecode.CABO_FICTICI r1=0.001,x1=0.001,units=km,normamps=100

! MT 3#  Rho=2850
new Linecode.CAB102 r1=1.5501332,x1=0.4542596,r0=2.1256724,x0=1.9818232,units=km,normamps=150 
new Linecode.CAB103 r1=0.9744332,x1=0.4366602,r0=1.5499724,x0=1.9642238,units=km,normamps=150 
new Linecode.CAB104 r1=0.613145,x1=0.41916,r0=1.1885,x0=1.728047,units=km,normamps=150 
new Linecode.CAB107 r1=0.306133,x1=0.392721,r0=0.800371,x0=1.505003,units=km,normamps=150 
new Linecode.CAB108 r1=0.195133,x1=0.356465,r0=0.689371,x0=1.468747,units=km,normamps=150 
new Linecode.CAB202 r1=1.537886,x1=0.474562,r0=2.118265,x0=1.906559,units=km,normamps=150 
new Linecode.CAB203 r1=0.966286,x1=0.456999,r0=1.546665,x0=1.888996,units=km,normamps=150 
new Linecode.CAB204 r1=0.613093,x1=0.43955,r0=1.193743,x0=1.65011,units=km,normamps=150 
new Linecode.CAB207 r1=0.306086,x1=0.413205,r0=0.807232,x0=1.427477,units=km,normamps=150 
new Linecode.CAB208 r1=0.195086,x1=0.387056,r0=0.696232,x0=1.401329,units=km,normamps=150 
new Linecode.CABA06 r1=0.7314084,x1=0.2964969,r0=1.2861325,x0=2.0001882,units=km,normamps=150 
new Linecode.CABA08 r1=0.2347077,x1=0.2338583,r0=0.7111179,x0=1.7501569,units=km,normamps=150 

! MT monofasico
new Linecode.CAB1021 r1=1.5501332,x1=0.4542596,r0=2.1256724,x0=1.9818232,units=km,normamps=150 
new Linecode.CAB1031 r1=0.9744332,x1=0.4366602,r0=1.5499724,x0=1.9642238,units=km,normamps=150 
new Linecode.CAB2021 r1=1.537886,x1=0.474562,r0=2.118265,x0=1.906559,units=km,normamps=150 
new Linecode.CAB2031 r1=0.966286,x1=0.456999,r0=1.546665,x0=1.888996,units=km,normamps=150 
new Linecode.CABA061 r1=0.7314084,x1=0.2964969,r0=1.2861325,x0=2.0001882,units=km,normamps=150 

! BT convencional
new Linecode.CABBT106 r1=1.551743,x1=0.359387,r0=2.293951,x0=2.03334,units=km,normamps=150
new Linecode.CABBT1061 r1=1.551743,x1=0.359387,r0=2.293951,x0=2.03334,units=km,normamps=150
new Linecode.CABBT1062 r1=1.551743,x1=0.359387,r0=2.293951,x0=2.03334,units=km,normamps=150
new Linecode.CABBT107 r1=0.975743,x1=0.341788,r0=1.717951,x0=2.015741,units=km,normamps=150 
new Linecode.CABBT1071 r1=0.975743,x1=0.341788,r0=1.717951,x0=2.015741,units=km,normamps=150 
new Linecode.CABBT1072 r1=0.975743,x1=0.341788,r0=1.717951,x0=2.015741,units=km,normamps=150 
new Linecode.CABBT108 r1=0.613811,x1=0.324009,r0=1.364689,x0=1.696607,units=km,normamps=150 
new Linecode.CABBT1082 r1=0.613811,x1=0.324009,r0=1.364689,x0=1.696607,units=km,normamps=150 

! BT multiplexada
new Linecode.CABBT803 r1=0.434804,x1=0.13771,r0=1.28365,x0=0.658266,units=km,normamps=150 
new Linecode.CABBT8032 r1=0.434804,x1=0.13771,r0=1.28365,x0=0.658266,units=km,normamps=150 
new Linecode.CABBT805 r1=0.248734,x1=0.116874,r0=1.09758,x0=0.63743,units=km,normamps=150 
new Linecode.CABBT809 r1=0.851376,x1=0.163022,r0=1.94898,x0=1.25992,units=km,normamps=150 
new Linecode.CABBT810 r1=0.851337,x1=0.16288,r0=1.70018,x0=0.683436,units=km,normamps=150 
 
!antiga 
!new Linecode.CABBT803 r1=0.443084,x1=0.100274,r0=1.360468,x0=0.73509,units=km,normamps=150
!new Linecode.CABBT8032 r1=0.443084,x1=0.100274,r0=1.360468,x0=0.73509,units=km,normamps=150 
!new Linecode.CABBT805 r1=0.253084,x1=0.087382,r0=1.155986,x0=0.734424,units=km,normamps=150 
!new Linecode.CABBT809 r1=0.868104,x1=0.125498,r0=2.111351,x0=1.382759,units=km,normamps=150 
!new Linecode.CABBT810 r1=0.869427,x1=0.127771,r0=1.782781,x0=0.760259,units=km,normamps=150 

! feitos manualmente (cabos bifásicos, utilizados seus correspondentes 3#)
new Linecode.CABBT808 r1=0.869427,x1=0.127771,r0=1.782781,x0=0.760259,units=km,normamps=150 
new Linecode.CABBT8082 r1=0.869427,x1=0.127771,r0=1.782781,x0=0.760259,units=km,normamps=150  
new Linecode.CABBT801 r1=0.868104,x1=0.125498,r0=2.111351,x0=1.382759,units=km,normamps=150  
new Linecode.CABBT8012 r1=0.868104,x1=0.125498,r0=2.111351,x0=1.382759,units=km,normamps=150 
new Linecode.CABBT807 r1=0.443084,x1=0.100274,r0=1.360468,x0=0.73509,units=km,normamps=150
new Linecode.CABBT8072 r1=0.443084,x1=0.100274,r0=1.360468,x0=0.73509,units=km,normamps=150

! cond antigos MANTER
new linecode.CABBT8111 r1=2.1716,x1=0.0821,units=km,normamps=95
new linecode.CABBT8161 r1=1.3643,x1=0.0833,units=km,normamps=125
new linecode.CABD021 r1=6.2665,x1=0.001,units=km,normamps=1000
new linecode.CABBT8142 r1=1.3646,x1=0.0833,units=km,normamps=125

! Definicoes por meio do Geometry
! MT
New Wiredata.CAB102  GMR=0.00213 DIAM=0.588 RAC=1.550 NormAmps=230.0000 Runits=km radunits=cm gmrunits=m ! 4AWG
New Wiredata.CAB103  GMR=0.00269 DIAM=0.741 RAC=0.9743 NormAmps=185.0000 Runits=km radunits=cm gmrunits=m ! 2AWG
New Wiredata.CAB104  GMR=0.00339 DIAM=0.936 RAC=0.6130 NormAmps=185.0000 Runits=km radunits=cm gmrunits=m ! 
New Wiredata.CAB107  GMR=0.00481 DIAM=1.326 RAC=0.3060 NormAmps=185.0000 Runits=km radunits=cm gmrunits=m ! 
New Wiredata.CAB108  GMR=0.00778 DIAM=1.883 RAC=0.1950 NormAmps=185.0000 Runits=km radunits=cm gmrunits=m ! 
New Wiredata.CAB202  GMR=0.00244 DIAM=0.635 RAC=1.5378 NormAmps=230.0000 Runits=km radunits=cm gmrunits=m ! 
New Wiredata.CAB203  GMR=0.00308 DIAM=0.802 RAC=0.9662 NormAmps=230.0000 Runits=km radunits=cm gmrunits=m ! 
New Wiredata.CAB204  GMR=0.00388 DIAM=1.011 RAC=0.6130 NormAmps=230.0000 Runits=km radunits=cm gmrunits=m ! 
New Wiredata.CAB207  GMR=0.00550 DIAM=1.431 RAC=0.3060 NormAmps=230.0000 Runits=km radunits=cm gmrunits=m ! 
New Wiredata.CAB208  GMR=0.00778 DIAM=1.883 RAC=0.1950 NormAmps=230.0000 Runits=km radunits=cm gmrunits=m ! 

! MT Isolada 
New Wiredata.CABA06  GMR=0.00339 DIAM=1.420 RAC=0.7314 NormAmps=230.0000 Runits=km radunits=cm gmrunits=m ! 
New Wiredata.CABA08  GMR=0.00778 DIAM=2.030 RAC=0.2347 NormAmps=230.0000 Runits=km radunits=cm gmrunits=m ! 
 
New Linegeometry.CAB102 nconds=4,nphases=3,cond=1,Wire=CAB102,x=0.3,h=8.4,units=m,cond=2,Wire=CAB102,x=1,h=8.4,units=m,cond=3,Wire=CAB102,x=1.7,h=8.4,units=m,cond=4,Wire=CAB102,x=0.2 h=7.2,units=m,Reduce=Y
New Linegeometry.CAB103 nconds=4,nphases=3,cond=1,Wire=CAB103,x=0.3,h=8.4,units=m,cond=2,Wire=CAB103,x=1,h=8.4,units=m,cond=3,Wire=CAB103,x=1.7,h=8.4,units=m,cond=4,Wire=CAB102,x=0.2 h=7.2,units=m,Reduce=Y
New Linegeometry.CAB104 nconds=4,nphases=3,cond=1,Wire=CAB104,x=0.3,h=8.4,units=m,cond=2,Wire=CAB104,x=1,h=8.4,units=m,cond=3,Wire=CAB104,x=1.7,h=8.4,units=m,cond=4,Wire=CAB103,x=0.2 h=7.2,units=m,Reduce=Y
New Linegeometry.CAB107 nconds=4,nphases=3,cond=1,Wire=CAB107,x=0.3,h=8.4,units=m,cond=2,Wire=CAB107,x=1,h=8.4,units=m,cond=3,Wire=CAB107,x=1.7,h=8.4,units=m,cond=4,Wire=CAB104,x=0.2 h=7.2,units=m,Reduce=Y
New Linegeometry.CAB108 nconds=4,nphases=3,cond=1,Wire=CAB108,x=0.3,h=8.4,units=m,cond=2,Wire=CAB108,x=1,h=8.4,units=m,cond=3,Wire=CAB108,x=1.7,h=8.4,units=m,cond=4,Wire=CAB104,x=0.2 h=7.2,units=m,Reduce=Y
New Linegeometry.CAB202 nconds=4,nphases=3,cond=1,Wire=CAB202,x=-1.1,h=8.4,units=m,cond=2,Wire=CAB202,x=0.4,h=8.4,units=m,cond=3,Wire=CAB202,x=1.1,h=8.4,units=m,cond=4,Wire=CAB202,x=0.2 h=7.2,units=m,Reduce=Y
New Linegeometry.CAB203 nconds=4,nphases=3,cond=1,Wire=CAB203,x=-1.1,h=8.4,units=m,cond=2,Wire=CAB203,x=0.4,h=8.4,units=m,cond=3,Wire=CAB203,x=1.1,h=8.4,units=m,cond=4,Wire=CAB202,x=0.2 h=7.2,units=m,Reduce=Y
New Linegeometry.CAB204 nconds=4,nphases=3,cond=1,Wire=CAB204,x=-1.1,h=8.4,units=m,cond=2,Wire=CAB204,x=0.4,h=8.4,units=m,cond=3,Wire=CAB204,x=1.1,h=8.4,units=m,cond=4,Wire=CAB203,x=0.2 h=7.2,units=m,Reduce=Y
New Linegeometry.CAB207 nconds=4,nphases=3,cond=1,Wire=CAB207,x=-1.1,h=8.4,units=m,cond=2,Wire=CAB207,x=0.4,h=8.4,units=m,cond=3,Wire=CAB207,x=1.1,h=8.4,units=m,cond=4,Wire=CAB204,x=0.2 h=7.2,units=m,Reduce=Y
New Linegeometry.CAB208 nconds=4,nphases=3,cond=1,Wire=CAB208,x=-1.1,h=8.4,units=m,cond=2,Wire=CAB208,x=0.4,h=8.4,units=m,cond=3,Wire=CAB208,x=1.1,h=8.4,units=m,cond=4,Wire=CAB204,x=0.2 h=7.2,units=m,Reduce=Y
New Linegeometry.CABA06 nconds=4,nphases=3,cond=1,Wire=CABA06,x=0.275,h=8.8,units=m,cond=2,Wire=CABA06,x=0.35,h=8.63,units=m,cond=3,Wire=CABA06,x=0.425,h=8.8,units=m,cond=4,Wire=CAB103,x=0.2 h=6.95,units=m,Reduce=Y
New Linegeometry.CABA08 nconds=4,nphases=3,cond=1,Wire=CABA08,x=0.275,h=8.8,units=m,cond=2,Wire=CABA08,x=0.35,h=8.63,units=m,cond=3,Wire=CABA08,x=0.425,h=8.8,units=m,cond=4,Wire=CAB104,x=0.2 h=6.95,units=m,Reduce=Y

! BT
New Wiredata.CABBT106 GMR=0.00213 DIAM=0.588 RAC=1.5510 NormAmps=185.0000 Runits=km radunits=cm gmrunits=m ! 
New Wiredata.CABBT107 GMR=0.00269 DIAM=0.741 RAC=0.9750  NormAmps=185.0000 Runits=km radunits=cm gmrunits=m ! 
New Wiredata.CABBT108 GMR=0.00339 DIAM=0.936 RAC=0.6130 NormAmps=185.0000 Runits=km radunits=cm gmrunits=m ! 
New Wiredata.CABBT35mm  GMR=0.00270 DIAM=0.700 RAC=0.8680 NormAmps=185.0000 Runits=km radunits=cm gmrunits=m ! 
New Wiredata.CABBT70mm  GMR=0.00377 DIAM=0.980 RAC=0.4430 NormAmps=185.0000 Runits=km radunits=cm gmrunits=m ! 
New Wiredata.CABBT120mm  GMR=0.00497 DIAM=1.290 RAC=0.2530 NormAmps=185.0000 Runits=km radunits=cm gmrunits=m !
! novos 
New Wiredata.CABBT809  GMR=0.00270 DIAM=0.700 RAC=0.8680 NormAmps=185.0000 Runits=km radunits=cm gmrunits=m ! 
New Wiredata.CABBT810  GMR=0.00270 DIAM=0.700 RAC=0.8680 NormAmps=185.0000 Runits=km radunits=cm gmrunits=m ! 
New Wiredata.CABBT803  GMR=0.00377 DIAM=0.980 RAC=0.4430 NormAmps=185.0000 Runits=km radunits=cm gmrunits=m ! 
New Wiredata.CABBT805  GMR=0.00497 DIAM=1.290 RAC=0.2530 NormAmps=185.0000 Runits=km radunits=cm gmrunits=m !

! BT convencional 
New Linegeometry.CABBT106 nconds=4,nphases=3,cond=1,Wire=CABBT106,x=0.2,h=7,units=m,cond=2,Wire=CABBT106,x=0.2,h=6.8,units=m,cond=3,Wire=CABBT106,x=0.2,h=6.6,units=m,cond=4,Wire=CABBT106,x=0.2 h=7.2,units=m,Reduce=Y
New Linegeometry.CABBT107 nconds=4,nphases=3,cond=1,Wire=CABBT107,x=0.2,h=7,units=m,cond=2,Wire=CABBT107,x=0.2,h=6.8,units=m,cond=3,Wire=CABBT107,x=0.2,h=6.6,units=m,cond=4,Wire=CABBT106,x=0.2 h=7.2,units=m,Reduce=Y
New Linegeometry.CABBT108 nconds=4,nphases=3,cond=1,Wire=CABBT108,x=0.2,h=7,units=m,cond=2,Wire=CABBT108,x=0.2,h=6.8,units=m,cond=3,Wire=CABBT108,x=0.2,h=6.6,units=m,cond=4,Wire=CABBT107,x=0.2 h=7.2,units=m,Reduce=Y

! BT multiplexada
New Linegeometry.CABBT803 nconds=4,nphases=3,cond=1,Wire=CABBT803,x=-0.012,h=7.1,units=m,cond=2,Wire=CABBT803,x=0,h=7.08,units=m,cond=3,Wire=CABBT803,x=0.012,h=7.1,units=m,cond=4,Wire=CABBT803,x=0 h=7.1,units=m,Reduce=Y
New Linegeometry.CABBT805 nconds=4,nphases=3,cond=1,Wire=CABBT805,x=-0.012,h=7.1,units=m,cond=2,Wire=CABBT805,x=0,h=7.08,units=m,cond=3,Wire=CABBT805,x=0.012,h=7.1,units=m,cond=4,Wire=CABBT70MM,x=0 h=7.1,units=m,Reduce=Y
New Linegeometry.CABBT809 nconds=4,nphases=3,cond=1,Wire=CABBT809,x=-0.012,h=7.1,units=m,cond=2,Wire=CABBT809,x=0,h=7.08,units=m,cond=3,Wire=CABBT809,x=0.012,h=7.1,units=m,cond=4,Wire=CABBT809,x=0 h=7.1,units=m,Reduce=Y
New Linegeometry.CABBT810 nconds=4,nphases=3,cond=1,Wire=CABBT810,x=-0.012,h=7.1,units=m,cond=2,Wire=CABBT810,x=0,h=7.08,units=m,cond=3,Wire=CABBT810,x=0.012,h=7.1,units=m,cond=4,Wire=CABBT70MM,x=0 h=7.1,units=m,Reduce=Y
New Linegeometry.CABBT801 nconds=3,nphases=2,cond=1,Wire=CABBT35mm,x=0,h=7.209,units=m,cond=2,Wire=CABBT35mm,x=-0.009,h=7.2,units=m,cond=3,Wire=CABBT35mm,x=0.009,h=7.2,units=m,Reduce=Y
New Linegeometry.CABBT807 nconds=3,nphases=2,cond=1,Wire=CABBT70mm,x=0,h=7.209,units=m,cond=2,Wire=CABBT70mm,x=-0.009,h=7.2,units=m,cond=3,Wire=CABBT70mm,x=0.009,h=7.2,units=m,Reduce=Y
New Linegeometry.CABBT808 nconds=3,nphases=2,cond=1,Wire=CABBT35mm,x=0,h=7.209,units=m,cond=2,Wire=CABBT35mm,x=-0.009,h=7.2,units=m,cond=3,Wire=CABBT70mm,x=0.009,h=7.2,units=m,Reduce=Y

! Linhas 1km
! New line.CAB102 bus1=b1.1.2.3.0,bus2=b2.1.2.3.0,phases=3,BaseFreq=60,Rho=2840,Geometry=CAB102,EarthModel=Carson,Length=1,Units=km
! New line.CAB103 bus1=b1.1.2.3.0,bus2=b2.1.2.3.0,phases=3,BaseFreq=60,Rho=2840,Geometry=CAB103,EarthModel=Carson,Length=1,Units=km
! New line.CAB104 bus1=b1.1.2.3.0,bus2=b2.1.2.3.0,phases=3,BaseFreq=60,Rho=2840,Geometry=CAB104,EarthModel=Carson,Length=1,Units=km
! New line.CAB107 bus1=b1.1.2.3.0,bus2=b2.1.2.3.0,phases=3,BaseFreq=60,Rho=2840,Geometry=CAB107,EarthModel=Carson,Length=1,Units=km
! New line.CAB108 bus1=b1.1.2.3.0,bus2=b2.1.2.3.0,phases=3,BaseFreq=60,Rho=2840,Geometry=CAB108,EarthModel=Carson,Length=1,Units=km
! New line.CAB202 bus1=b1.1.2.3.0,bus2=b2.1.2.3.0,phases=3,BaseFreq=60,Rho=2840,Geometry=CAB202,EarthModel=Carson,Length=1,Units=km
! New line.CAB203 bus1=b1.1.2.3.0,bus2=b2.1.2.3.0,phases=3,BaseFreq=60,Rho=2840,Geometry=CAB203,EarthModel=Carson,Length=1,Units=km
! New line.CAB204 bus1=b1.1.2.3.0,bus2=b2.1.2.3.0,phases=3,BaseFreq=60,Rho=2840,Geometry=CAB204,EarthModel=Carson,Length=1,Units=km
! New line.CAB207 bus1=b1.1.2.3.0,bus2=b2.1.2.3.0,phases=3,BaseFreq=60,Rho=2840,Geometry=CAB207,EarthModel=Carson,Length=1,Units=km
! New line.CAB208 bus1=b1.1.2.3.0,bus2=b2.1.2.3.0,phases=3,BaseFreq=60,Rho=2840,Geometry=CAB208,EarthModel=Carson,Length=1,Units=km
! New line.CABA06 bus1=b1.1.2.3.0,bus2=b2.1.2.3.0,phases=3,BaseFreq=60,Rho=2840,Geometry=CABA06,EarthModel=Carson,Length=1,Units=km
! New line.CABA08 bus1=b1.1.2.3.0,bus2=b2.1.2.3.0,phases=3,BaseFreq=60,Rho=2840,Geometry=CABA08,EarthModel=Carson,Length=1,Units=km
! New line.CABBT106 bus1=b1.1.2.3.0,bus2=b2.1.2.3.0,phases=3,BaseFreq=60,Rho=2840,Geometry=CABBT106,EarthModel=Carson,Length=1,Units=km
! New line.CABBT107 bus1=b1.1.2.3.0,bus2=b2.1.2.3.0,phases=3,BaseFreq=60,Rho=2840,Geometry=CABBT107,EarthModel=Carson,Length=1,Units=km
! New line.CABBT108 bus1=b1.1.2.3.0,bus2=b2.1.2.3.0,phases=3,BaseFreq=60,Rho=2840,Geometry=CABBT108,EarthModel=Carson,Length=1,Units=km
! New line.CABBT803 bus1=b1.1.2.3.0,bus2=b2.1.2.3.0,phases=3,BaseFreq=60,Rho=2840,Geometry=CABBT803,EarthModel=Carson,Length=1,Units=km
! New line.CABBT805 bus1=b1.1.2.3.0,bus2=b2.1.2.3.0,phases=3,BaseFreq=60,Rho=2840,Geometry=CABBT805,EarthModel=Carson,Length=1,Units=km
! New line.CABBT809 bus1=b1.1.2.3.0,bus2=b2.1.2.3.0,phases=3,BaseFreq=60,Rho=2840,Geometry=CABBT809,EarthModel=Carson,Length=1,Units=km
! New line.CABBT810 bus1=b1.1.2.3.0,bus2=b2.1.2.3.0,phases=3,BaseFreq=60,Rho=2840,Geometry=CABBT810,EarthModel=Carson,Length=1,Units=km
! New line.CABBT801 bus1=b1.1.2.3.0,bus2=b2.1.2.3.0,phases=3,BaseFreq=60,Rho=2840,Geometry=CABBT801,EarthModel=Carson,Length=1,Units=km
! New line.CABBT807 bus1=b1.1.2.3.0,bus2=b2.1.2.3.0,phases=3,BaseFreq=60,Rho=2840,Geometry=CABBT807,EarthModel=Carson,Length=1,Units=km
! New line.CABBT808 bus1=b1.1.2.3.0,bus2=b2.1.2.3.0,phases=3,BaseFreq=60,Rho=2840,Geometry=CABBT808,EarthModel=Carson,Length=1,Units=km

new linecode.CABBTG05_4_2 r1=2.1716,x1=0.0821,r0=2.413,x0=2.14,units=km,normamps=95
new linecode.CABBTG01_4_1 r1=3.5016,x1=0.082,r0=4.017,x0=1.024,units=km,normamps=71
new linecode.CABBTG07_4_3 r1=0.9873,x1=0.0818,r0=2.435,x0=1.979,units=km,normamps=110
new linecode.CABBTG06_4_3 r1=2.1716,x1=0.0903,r0=3.493,x0=2.936,units=km,normamps=82
new linecode.CABBTG10_4_3 r1=1.3643,x1=0.0833,r0=2.837,x0=2.369,units=km,normamps=125
new linecode.CABBTG02_4_1 r1=2.1716,x1=0.0821,r0=2.701,x0=0.902,units=km,normamps=95
new linecode.CABBT815_4_3 r1=2.1716,x1=0.0821,r0=3.51,x0=2.956,units=km,normamps=82
new linecode.CABBTG13_4_2 r1=1.3646,x1=0.0833,r0=1.56,x0=2.11,units=km,normamps=125
new linecode.CABBTG04_4_2 r1=3.5016,x1=0.082,r0=3.819,x0=2.174,units=km,normamps=71
new linecode.CABBTG11_4_3 r1=3.5016,x1=0.082,r0=4.649,x0=3.742,units=km,normamps=71
new linecode.CABBT811_4_2 r1=2.1716,x1=0.0821,r0=2.413,x0=2.14,units=km,normamps=95
new linecode.CABBT807_4_2 r1=0.5047,x1=0.0897,r0=0.651,x0=2.061,units=km,normamps=200
new linecode.CABBT812_4_3 r1=1.3646,x1=0.0889,r0=2.822,x0=2.357,units=km,normamps=108
new linecode.CABBT801_4_2 r1=0.9873,x1=0.0818,r0=1.161,x0=2.083,units=km,normamps=99
new linecode.CABBTG09_4_3 r1=0.2895,x1=0.0911,r0=1.352,x0=1.083,units=km,normamps=201
new linecode.CABBTG08_4_3 r1=0.5047,x1=0.08,r0=1.604,x0=1.232,units=km,normamps=147
new linecode.CABBT808_4_2 r1=0.9873,x1=0.0783,r0=1.161,x0=2.073,units=km,normamps=110
new linecode.CABBTG12_4_3 r1=0.9873,x1=0.0698,r0=2.098,x0=1.548,units=km,normamps=129
new linecode.CABBT806_4_3 r1=0.2156,x1=0.0865,r0=0.922,x0=0.72,units=km,normamps=225
new linecode.CABBT805_4_3 r1=0.248734,x1=0.116874,r0=1.09758,x0=0.63743,units=km,normamps=201
new linecode.CABBT803_4_2 r1=0.434804,x1=0.13771,r0=1.28365,x0=0.658266,units=km,normamps=147
new linecode.CABBTG03_4_1 r1=1.3646,x1=0.0833,r0=1.908,x0=0.723,units=km,normamps=125
new linecode.CABBT811_4_1 r1=2.1716,x1=0.0821,r0=2.413,x0=2.14,units=km,normamps=95
new linecode.CABBT815_4_2 r1=2.1716,x1=0.0821,r0=3.51,x0=2.956,units=km,normamps=82
new linecode.CABBT815_4_1 r1=2.1716,x1=0.0821,r0=3.51,x0=2.956,units=km,normamps=82
new linecode.CABBT804_4_3 r1=0.5059,x1=0.08,r0=1.428,x0=1.128,units=km,normamps=180
new linecode.CABBT813_4_3 r1=0.7318,x1=0.0797,r0=2.057,x0=1.624,units=km,normamps=160
new linecode.CABBT810_4_3 r1=0.851337,x1=0.16288,r0=1.70018,x0=0.683436,units=km,normamps=110
new linecode.CABBT514_7_3 r1=0.143,x1=0.1199,r0=0.49,x0=0.481,units=km,normamps=612
new linecode.CABBT503_7_1 r1=2.179,x1=0.585,r0=3.492,x0=2.304,units=km,normamps=82
new linecode.CABBT802_4_2 r1=0.7318,x1=0.0835,r0=0.889,x0=2.067,units=km,normamps=123
new linecode.CABBT803_4_3 r1=0.434804,x1=0.13771,r0=1.28365,x0=0.658266,units=km,normamps=147
new linecode.CABBT809_4_3 r1=0.851376,x1=0.163022,r0=1.94898,x0=1.25992,units=km,normamps=110
new linecode.CABBT814_4_2 r1=1.3646,x1=0.0833,r0=1.56,x0=2.11,units=km,normamps=125
new linecode.CABBT314_7_3 r1=0.0871,x1=0.1199,r0=0.291,x0=0.454,units=km,normamps=789
new linecode.CABBT809_4_2 r1=0.851376,x1=0.163022,r0=1.94898,x0=1.25992,units=km,normamps=110
new linecode.CABBTG05_4_1 r1=2.1716,x1=0.0821,r0=2.413,x0=2.14,units=km,normamps=95
new linecode.CABBT812_4_2 r1=1.3646,x1=0.0889,r0=2.822,x0=2.357,units=km,normamps=108
new linecode.CABBTG08_4_2 r1=0.5047,x1=0.08,r0=1.604,x0=1.232,units=km,normamps=147
new linecode.CABBT816_4_1 r1=1.3643,x1=0.0833,r0=1.908,x0=0.723,units=km,normamps=125
new linecode.CABBTG07_4_2 r1=0.9873,x1=0.0818,r0=2.435,x0=1.979,units=km,normamps=110
new linecode.CABBT313_7_3 r1=0.1747,x1=0.114,r0=0.579,x0=0.478,units=km,normamps=498
new linecode.CABBTG04_4_3 r1=3.5016,x1=0.082,r0=3.819,x0=2.174,units=km,normamps=71
new linecode.CABBT810_4_2 r1=0.851337,x1=0.16288,r0=1.70018,x0=0.683436,units=km,normamps=110
new linecode.CABBTG05_4_3 r1=2.1716,x1=0.0821,r0=2.413,x0=2.14,units=km,normamps=95
new linecode.CABBTG02_4_2 r1=2.1716,x1=0.0821,r0=2.701,x0=0.902,units=km,normamps=95
new linecode.CABBT804_4_2 r1=0.5059,x1=0.08,r0=1.428,x0=1.128,units=km,normamps=180
new linecode.CABBTG04_4_1 r1=3.5016,x1=0.082,r0=3.819,x0=2.174,units=km,normamps=71
new linecode.CABBT302_7_3 r1=1.1686,x1=0.129,r0=2.682,x0=1.856,units=km,normamps=70
new linecode.CABBT807_4_1 r1=0.5047,x1=0.0897,r0=0.651,x0=2.061,units=km,normamps=200
new linecode.CABBT805_4_2 r1=0.248734,x1=0.116874,r0=1.09758,x0=0.63743,units=km,normamps=201
new linecode.CABBTG10_4_2 r1=1.3643,x1=0.0833,r0=2.837,x0=2.369,units=km,normamps=125
new linecode.CABBT801_4_1 r1=0.9873,x1=0.0818,r0=1.161,x0=2.083,units=km,normamps=99
new linecode.CABBT813_4_2 r1=0.7318,x1=0.0797,r0=2.057,x0=1.624,units=km,normamps=160
new linecode.CABBTG06_4_2 r1=2.1716,x1=0.0903,r0=3.493,x0=2.936,units=km,normamps=82
new linecode.CABBT304_7_3 r1=0.7349,x1=0.1287,r0=2.061,x0=1.263,units=km,normamps=93
new linecode.CABBT805_4_1 r1=0.248734,x1=0.116874,r0=1.09758,x0=0.63743,units=km,normamps=201
new linecode.CABBT302_7_2 r1=1.1686,x1=0.129,r0=2.682,x0=1.856,units=km,normamps=70
new linecode.CABBT521_7_3 r1=0.732,x1=0.585,r0=2.114,x0=1.341,units=km,normamps=170
new linecode.CABBTG07_4_1 r1=0.9873,x1=0.0818,r0=2.435,x0=1.979,units=km,normamps=110
new linecode.CABBTG06_4_1 r1=2.1716,x1=0.0903,r0=3.493,x0=2.936,units=km,normamps=82
new linecode.CABBT517_7_2 r1=0.991,x1=0.248,r0=2.334,x0=1.538,units=km,normamps=94
new linecode.CABBTG01_4_2 r1=3.5016,x1=0.082,r0=4.017,x0=1.024,units=km,normamps=71
new linecode.CABBT810_4_1 r1=0.851337,x1=0.16288,r0=1.70018,x0=0.683436,units=km,normamps=110
new linecode.CABBT802_4_1 r1=0.7318,x1=0.0835,r0=0.889,x0=2.067,units=km,normamps=123
new linecode.CABBT513_7_2 r1=0.289,x1=0.255,r0=1.038,x0=0.638,units=km,normamps=386
new linecode.CABBTG12_4_2 r1=0.9873,x1=0.0698,r0=2.098,x0=1.548,units=km,normamps=129
new linecode.CABBT513_7_3 r1=0.289,x1=0.255,r0=1.038,x0=0.638,units=km,normamps=386
new linecode.CABBTG01_4_3 r1=3.5016,x1=0.082,r0=4.017,x0=1.024,units=km,normamps=71
new linecode.CABBT809_4_1 r1=0.851376,x1=0.163022,r0=1.94898,x0=1.25992,units=km,normamps=110
new linecode.CABBT317_7_3 r1=0.2201,x1=0.1232,r0=0.716,x0=0.54,units=km,normamps=427
new linecode.CABBT814_4_1 r1=1.3646,x1=0.0833,r0=1.56,x0=2.11,units=km,normamps=125
new linecode.CABBT313_5_3 r1=0.1747,x1=0.114,r0=0.579,x0=0.478,units=km,normamps=498
new linecode.CABBT514_7_2 r1=0.143,x1=0.1199,r0=0.49,x0=0.481,units=km,normamps=612
new linecode.CABBT517_7_3 r1=0.991,x1=0.248,r0=2.334,x0=1.538,units=km,normamps=94
new linecode.CABBT304_7_2 r1=0.7349,x1=0.1287,r0=2.061,x0=1.263,units=km,normamps=93
new linecode.CABBT801_4_3 r1=0.9873,x1=0.0818,r0=1.161,x0=2.083,units=km,normamps=99
new linecode.CABBT512_7_2 r1=0.3029,x1=0.1164,r0=0.666,x0=0.506,units=km,normamps=390
new linecode.CABBTG02_4_3 r1=2.1716,x1=0.0821,r0=2.701,x0=0.902,units=km,normamps=95
new linecode.CABBT807_4_3 r1=0.5047,x1=0.0897,r0=0.651,x0=2.061,units=km,normamps=200
new linecode.CABBT514_5_3 r1=0.143,x1=0.1199,r0=0.49,x0=0.481,units=km,normamps=612
new linecode.CABBT808_4_1 r1=0.9873,x1=0.0783,r0=1.161,x0=2.073,units=km,normamps=110
new linecode.CABBT808_4_3 r1=0.9873,x1=0.0783,r0=1.161,x0=2.073,units=km,normamps=110
new linecode.CABBT812_4_1 r1=1.3646,x1=0.0889,r0=2.822,x0=2.357,units=km,normamps=108
new linecode.CABBT505_7_3 r1=1.369,x1=0.1382,r0=2.689,x0=1.899,units=km,normamps=101
new linecode.CABBTG08_4_1 r1=0.5047,x1=0.08,r0=1.604,x0=1.232,units=km,normamps=147
new linecode.CABBT813_4_1 r1=0.7318,x1=0.0797,r0=2.057,x0=1.624,units=km,normamps=160
new linecode.CABBT803_4_1 r1=0.434804,x1=0.13771,r0=1.28365,x0=0.658266,units=km,normamps=147
new linecode.CABBT517_7_1 r1=0.991,x1=0.248,r0=2.334,x0=1.538,units=km,normamps=94
new linecode.CABBT521_5_3 r1=0.732,x1=0.585,r0=2.114,x0=1.341,units=km,normamps=170
new linecode.CABBT504_7_3 r1=2.4156,x1=0.1352,r0=3.752,x0=2.727,units=km,normamps=85
new linecode.CABBT504_7_2 r1=2.4156,x1=0.1352,r0=3.752,x0=2.727,units=km,normamps=85
new linecode.CABBT518_7_1 r1=0.506,x1=0.443,r0=1.523,x0=0.898,units=km,normamps=138
new linecode.CABBT504_7_1 r1=2.4156,x1=0.1352,r0=3.752,x0=2.727,units=km,normamps=85
new linecode.CABBT302_7_1 r1=1.1686,x1=0.129,r0=2.682,x0=1.856,units=km,normamps=70
new linecode.CABBT806_4_2 r1=0.2156,x1=0.0865,r0=0.922,x0=0.72,units=km,normamps=225
new linecode.CABBT811_4_3 r1=2.1716,x1=0.0821,r0=2.413,x0=2.14,units=km,normamps=95
new linecode.CABBTG11_4_2 r1=3.5016,x1=0.082,r0=4.649,x0=3.742,units=km,normamps=71
new linecode.CABBTG11_4_1 r1=3.5016,x1=0.082,r0=4.649,x0=3.742,units=km,normamps=71
new linecode.CABBT521_7_2 r1=0.732,x1=0.585,r0=2.114,x0=1.341,units=km,normamps=170
new linecode.CABBTG13_4_1 r1=1.3646,x1=0.0833,r0=1.56,x0=2.11,units=km,normamps=125
new linecode.CABBT314_5_3 r1=0.0871,x1=0.1199,r0=0.291,x0=0.454,units=km,normamps=789
new linecode.CABBT513_5_3 r1=0.289,x1=0.255,r0=1.038,x0=0.638,units=km,normamps=386
new linecode.CABBTG03_4_3 r1=1.3646,x1=0.0833,r0=1.908,x0=0.723,units=km,normamps=125
new linecode.CABBTG12_4_1 r1=0.9873,x1=0.0698,r0=2.098,x0=1.548,units=km,normamps=129
new linecode.CABBT806_4_1 r1=0.2156,x1=0.0865,r0=0.922,x0=0.72,units=km,normamps=225
new linecode.CABBTG13_4_3 r1=1.3646,x1=0.0833,r0=1.56,x0=2.11,units=km,normamps=125
new linecode.CABBT318_7_3 r1=0.1138,x1=0.12,r0=0.376,x0=0.464,units=km,normamps=660
new linecode.CABBT501_7_1 r1=6.1079,x1=0.1578,r0=7.128,x0=3.28,units=km,normamps=48
new linecode.CABBT317_7_2 r1=0.2201,x1=0.1232,r0=0.716,x0=0.54,units=km,normamps=427
new linecode.CABBT519_7_1 r1=3.514,x1=0.1462,r0=4.427,x0=2.971,units=km,normamps=48
new linecode.CABBT518_7_3 r1=0.506,x1=0.443,r0=1.523,x0=0.898,units=km,normamps=138
new linecode.CABBT506_7_2 r1=1.9158,x1=0.1334,r0=3.009,x0=2.21,units=km,normamps=113
new linecode.CABBT501_5_1 r1=6.1079,x1=0.1578,r0=7.128,x0=3.28,units=km,normamps=48
new linecode.CABBT503_7_2 r1=2.179,x1=0.585,r0=3.492,x0=2.304,units=km,normamps=82
new linecode.CABBT513_7_1 r1=0.289,x1=0.255,r0=1.038,x0=0.638,units=km,normamps=386
new linecode.CABBT505_5_1 r1=1.369,x1=0.1382,r0=2.689,x0=1.899,units=km,normamps=101
new linecode.CABBT503_5_1 r1=2.179,x1=0.585,r0=3.492,x0=2.304,units=km,normamps=82
new linecode.CABBT301_7_2 r1=3.7256,x1=0.1578,r0=4.89,x0=3.094,units=km,normamps=61
new linecode.CABBT503_5_3 r1=2.179,x1=0.585,r0=3.492,x0=2.304,units=km,normamps=82
new linecode.CABBT506_7_1 r1=1.9158,x1=0.1334,r0=3.009,x0=2.21,units=km,normamps=113
new linecode.CABBT521_7_1 r1=0.732,x1=0.585,r0=2.114,x0=1.341,units=km,normamps=170
new linecode.CABBT514_7_1 r1=0.143,x1=0.1199,r0=0.49,x0=0.481,units=km,normamps=612
new linecode.CABBT307_7_3 r1=0.6361,x1=0.1255,r0=1.872,x0=1.107,units=km,normamps=192
new linecode.CABBT307_7_2 r1=0.6361,x1=0.1255,r0=1.872,x0=1.107,units=km,normamps=192
new linecode.CABBT316_7_3 r1=1.9597,x1=0.1458,r0=3.398,x0=2.541,units=km,normamps=102
new linecode.CABBTG10_4_1 r1=1.3643,x1=0.0833,r0=2.837,x0=2.369,units=km,normamps=125
new linecode.CABBT507_5_3 r1=1.2047,x1=0.1255,r0=2.515,x0=1.693,units=km,normamps=150
new linecode.CABBT507_7_3 r1=1.2047,x1=0.1255,r0=2.515,x0=1.693,units=km,normamps=150
new linecode.CABBT521_5_2 r1=0.732,x1=0.585,r0=2.114,x0=1.341,units=km,normamps=170
new linecode.CABBT514_5_2 r1=0.143,x1=0.1199,r0=0.49,x0=0.481,units=km,normamps=612
new linecode.CABBT317_5_3 r1=0.2201,x1=0.1232,r0=0.716,x0=0.54,units=km,normamps=427
new linecode.CABBT314_7_2 r1=0.0871,x1=0.1199,r0=0.291,x0=0.454,units=km,normamps=789
new linecode.CABBT514_5_1 r1=0.143,x1=0.1199,r0=0.49,x0=0.481,units=km,normamps=612
new linecode.CABBT314_5_2 r1=0.0871,x1=0.1199,r0=0.291,x0=0.454,units=km,normamps=789
new linecode.CABBT318_7_2 r1=0.1138,x1=0.12,r0=0.376,x0=0.464,units=km,normamps=660
new linecode.CABBT503_5_2 r1=2.179,x1=0.585,r0=3.492,x0=2.304,units=km,normamps=82
new linecode.CABBT517_5_3 r1=0.991,x1=0.248,r0=2.334,x0=1.538,units=km,normamps=94
new linecode.CABBT520_7_3 r1=0.188,x1=0.164,r0=0.302,x0=2.549,units=km,normamps=512
new linecode.CABD02_3_1 r1=15.2665,x1=0.001,r0=48.21,x0=0.001,units=km,normamps=1000
new linecode.CABD01_3_1 r1=15.2665,x1=0.001,r0=48.21,x0=0.001,units=km,normamps=1000
new linecode.CABD03_3_1 r1=15.2665,x1=0.001,r0=48.21,x0=0.001,units=km,normamps=37
new linecode.CABI02_3_3 r1=0.2347,x1=0.261,r0=0.001,x0=0.001,units=km,normamps=432
new linecode.CABD01_3_3 r1=15.2665,x1=0.001,r0=48.21,x0=0.001,units=km,normamps=1000
new linecode.CABD02_3_3 r1=15.2665,x1=0.001,r0=48.21,x0=0.001,units=km,normamps=1000
new linecode.CABC01_3_1 r1=18.325,x1=0.001,r0=48.21,x0=0.001,units=km,normamps=37
new linecode.CABI01_3_3 r1=0.5039,x1=0.15,r0=0.001,x0=0.001,units=km,normamps=270
new linecode.CAB_3_5_1_6 r1=0.001,x1=0.001,r0=0.001,x0=0.001,units=km,normamps=1000
new linecode.CAB_1_3_1_6 r1=0.001,x1=0.001,r0=0.001,x0=0.001,units=km,normamps=1000
new linecode.CAB_3_11_1_2 r1=0.001,x1=0.001,r0=0.001,x0=0.001,units=km,normamps=1000
new linecode.CAB_2_11_1_2 r1=0.001,x1=0.001,r0=0.001,x0=0.001,units=km,normamps=1000
new linecode.CAB_2_1_1_2 r1=0.001,x1=0.001,r0=0.001,x0=0.001,units=km,normamps=1000
new linecode.CAB_1_5_1_6 r1=0.001,x1=0.001,r0=0.001,x0=0.001,units=km,normamps=1000
new linecode.CAB_1_3_1_2 r1=0.001,x1=0.001,r0=0.001,x0=0.001,units=km,normamps=1000
new linecode.CAB_1_5_1_5 r1=0.001,x1=0.001,r0=0.001,x0=0.001,units=km,normamps=1000
new linecode.CAB_3_3_1_2 r1=0.001,x1=0.001,r0=0.001,x0=0.001,units=km,normamps=1000
new linecode.CAB_3_1_1_2 r1=0.001,x1=0.001,r0=0.001,x0=0.001,units=km,normamps=1000
new linecode.CAB_2_6_1_5 r1=0.001,x1=0.001,r0=0.001,x0=0.001,units=km,normamps=1000
new linecode.CAB_3_1_1_6 r1=0.001,x1=0.001,r0=0.001,x0=0.001,units=km,normamps=1000
new linecode.CAB_1_6_1_5 r1=0.001,x1=0.001,r0=0.001,x0=0.001,units=km,normamps=1000
new linecode.CAB_3_6_1_6 r1=0.001,x1=0.001,r0=0.001,x0=0.001,units=km,normamps=1000
new linecode.CAB_2_5_1_6 r1=0.001,x1=0.001,r0=0.001,x0=0.001,units=km,normamps=1000
new linecode.CAB_1_4_1_5 r1=0.001,x1=0.001,r0=0.001,x0=0.001,units=km,normamps=1000
new linecode.CAB_1_7_1_6 r1=0.001,x1=0.001,r0=0.001,x0=0.001,units=km,normamps=1000
new linecode.CAB_3_3_1_6 r1=0.001,x1=0.001,r0=0.001,x0=0.001,units=km,normamps=1000
new linecode.CAB_3_7_1_6 r1=0.001,x1=0.001,r0=0.001,x0=0.001,units=km,normamps=1000
new linecode.CAB_1_3_1_5 r1=0.001,x1=0.001,r0=0.001,x0=0.001,units=km,normamps=1000
new linecode.CAB_2_3_1_6 r1=0.001,x1=0.001,r0=0.001,x0=0.001,units=km,normamps=1000
new linecode.CAB_2_17_1_2 r1=0.001,x1=0.001,r0=0.001,x0=0.001,units=km,normamps=1000
new linecode.CAB_2_3_1_2 r1=0.001,x1=0.001,r0=0.001,x0=0.001,units=km,normamps=1000
new linecode.CAB_3_93_1_6 r1=0.001,x1=0.001,r0=0.001,x0=0.001,units=km,normamps=1000
new linecode.CAB_2_94_1_2 r1=0.001,x1=0.001,r0=0.001,x0=0.001,units=km,normamps=1000
new linecode.CAB_3_1_1_3 r1=0.001,x1=0.001,r0=0.001,x0=0.001,units=km,normamps=1000
new linecode.CAB_1_11_1_14 r1=0.001,x1=0.001,r0=0.001,x0=0.001,units=km,normamps=1000
new linecode.CAB_1_3_2_2 r1=0.001,x1=0.001,r0=0.001,x0=0.001,units=km,normamps=1000
new linecode.CAB_3_5_1_2 r1=0.001,x1=0.001,r0=0.001,x0=0.001,units=km,normamps=1000
new linecode.CAB_3_7_1_2 r1=0.001,x1=0.001,r0=0.001,x0=0.001,units=km,normamps=1000
new linecode.CAB_3_94_1_2 r1=0.001,x1=0.001,r0=0.001,x0=0.001,units=km,normamps=1000
new linecode.CAB_3_10_1_2 r1=0.001,x1=0.001,r0=0.001,x0=0.001,units=km,normamps=1000
new linecode.CAB_1_1_1_2 r1=0.001,x1=0.001,r0=0.001,x0=0.001,units=km,normamps=1000
new linecode.CAB_3_1_2_2 r1=0.001,x1=0.001,r0=0.001,x0=0.001,units=km,normamps=1000
new linecode.CAB_2_91_1_2 r1=0.001,x1=0.001,r0=0.001,x0=0.001,units=km,normamps=1000
new linecode.CAB_2_1_1_6 r1=0.001,x1=0.001,r0=0.001,x0=0.001,units=km,normamps=1000
new linecode.CAB_1_11_1_2 r1=0.001,x1=0.001,r0=0.001,x0=0.001,units=km,normamps=1000
new linecode.CAB_2_16_1_2 r1=0.001,x1=0.001,r0=0.001,x0=0.001,units=km,normamps=1000
new linecode.CAB_1_6_1_6 r1=0.001,x1=0.001,r0=0.001,x0=0.001,units=km,normamps=1000
new linecode.CAB_2_17_1_6 r1=0.001,x1=0.001,r0=0.001,x0=0.001,units=km,normamps=1000
new linecode.CAB_3_8_1_2 r1=0.001,x1=0.001,r0=0.001,x0=0.001,units=km,normamps=1000
new linecode.CAB_2_11_1_14 r1=0.001,x1=0.001,r0=0.001,x0=0.001,units=km,normamps=1000
new linecode.CAB_3_6_1_5 r1=0.001,x1=0.001,r0=0.001,x0=0.001,units=km,normamps=1000
new linecode.CAB_3_3_2_2 r1=0.001,x1=0.001,r0=0.001,x0=0.001,units=km,normamps=1000
new linecode.CAB_2_7_1_6 r1=0.001,x1=0.001,r0=0.001,x0=0.001,units=km,normamps=1000
new linecode.CAB_2_6_1_6 r1=0.001,x1=0.001,r0=0.001,x0=0.001,units=km,normamps=1000
new linecode.CAB_2_3_2_2 r1=0.001,x1=0.001,r0=0.001,x0=0.001,units=km,normamps=1000
new linecode.CAB_3_3_1_5 r1=0.001,x1=0.001,r0=0.001,x0=0.001,units=km,normamps=1000
new linecode.CAB_1_8_1_6 r1=0.001,x1=0.001,r0=0.001,x0=0.001,units=km,normamps=1000
new linecode.CAB_1_1_1_6 r1=0.001,x1=0.001,r0=0.001,x0=0.001,units=km,normamps=1000
new linecode.CAB_3_93_1_2 r1=0.001,x1=0.001,r0=0.001,x0=0.001,units=km,normamps=1000
new linecode.CAB_2_8_1_6 r1=0.001,x1=0.001,r0=0.001,x0=0.001,units=km,normamps=1000
new linecode.CAB_1_40_1_6 r1=0.001,x1=0.001,r0=0.001,x0=0.001,units=km,normamps=1000
...
!manual
new linecode.T107_BT107_7_3_1 r1=0.975743,x1=0.341788,r0=1.717951,x0=2.015741,units=km,normamps=149

new linecode.BT521_BT521_7_2_1 r1=0.732,x1=0.585,r0=2.114,x0=1.341,units=km,normamps=170
new linecode.BT505_BT505_7_2_1 r1=1.369,x1=0.1382,r0=2.689,x0=1.899,units=km,normamps=101
new linecode.BT513_BT513_7_3_1 r1=0.289,x1=0.255,r0=1.038,x0=0.638,units=km,normamps=386
new linecode.BT508_BT508_7_2_1 r1=1.0445,x1=0.1236,r0=1.904,x0=1.136,units=km,normamps=201
new linecode.BT509_BT509_7_3_1 r1=0.6569,x1=0.1208,r0=1.613,x0=0.924,units=km,normamps=232
new linecode.BT513_BT513_7_2_1 r1=0.289,x1=0.255,r0=1.038,x0=0.638,units=km,normamps=386
new linecode.BT309_BT309_7_2_1 r1=0.3051,x1=0.1208,r0=1.031,x0=0.631,units=km,normamps=298
new linecode.BT007_BT005_7_3_1 r1=0.62,x1=1.5,r0=0.909,x0=1.133,units=km,normamps=194
new linecode.BT106_BT106_7_2_1 r1=1.551743,x1=0.359387,r0=2.293951,x0=2.03334,units=km,normamps=111
new linecode.BT005_BT005_7_3_1 r1=1.564,x1=1.27,r0=0.932,x0=1.161,units=km,normamps=101
new linecode.BT808_BT808_4_2_3 r1=0.9873,x1=0.0783,r0=1.161,x0=2.073,units=km,normamps=110
new linecode.BT_BT005_7_0_1 r1=0.001,x1=0.001,r0=0.001,x0=0.001,units=km,normamps=1000
new linecode.BT108_BT108_7_3_1 r1=0.613811,x1=0.324009,r0=1.364689,x0=1.696607,units=km,normamps=201
new linecode.BT107_BT106_7_2_1 r1=0.975743,x1=0.341788,r0=1.717951,x0=2.015741,units=km,normamps=149
new linecode.BT503_BT503_5_2_1 r1=2.179,x1=0.585,r0=3.492,x0=2.304,units=km,normamps=82
new linecode.BT_BT106_7_0_1 r1=0.001,x1=0.001,r0=0.001,x0=0.001,units=km,normamps=1000
new linecode.BT807_BT807_4_2_3 r1=0.5047,x1=0.0897,r0=0.651,x0=2.061,units=km,normamps=200
new linecode.BT521_BT521_7_3_1 r1=0.732,x1=0.585,r0=2.114,x0=1.341,units=km,normamps=170
new linecode.BT513_BT513_5_3_1 r1=0.289,x1=0.255,r0=1.038,x0=0.638,units=km,normamps=386
new linecode.BT805_BT805_4_3_4 r1=0.248734,x1=0.116874,r0=1.09758,x0=0.63743,units=km,normamps=201
new linecode.BT503_BT503_5_3_1 r1=2.179,x1=0.585,r0=3.492,x0=2.304,units=km,normamps=82
new linecode.BT519_BT519_7_2_1 r1=3.514,x1=0.1462,r0=4.427,x0=2.971,units=km,normamps=48
new linecode.BT514_BT514_7_3_1 r1=0.143,x1=0.1199,r0=0.49,x0=0.481,units=km,normamps=612
new linecode.BT803_BT803_4_2_4 r1=0.434804,x1=0.13771,r0=1.28365,x0=0.658266,units=km,normamps=147
new linecode.BT307_BT307_7_3_1 r1=0.6361,x1=0.1255,r0=1.872,x0=1.107,units=km,normamps=192
new linecode.BT814_BT814_4_2_3 r1=1.3646,x1=0.0833,r0=1.56,x0=2.11,units=km,normamps=125
new linecode.BT316_BT316_7_2_1 r1=1.9597,x1=0.1458,r0=3.398,x0=2.541,units=km,normamps=102
new linecode.BT809_BT809_4_3_4 r1=0.851376,x1=0.163022,r0=1.94898,x0=1.25992,units=km,normamps=110
new linecode.BT304_BT304_7_2_1 r1=0.7349,x1=0.1287,r0=2.061,x0=1.263,units=km,normamps=93
new linecode.BT106_BT206_7_2_1 r1=1.551743,x1=0.359387,r0=2.293951,x0=2.03334,units=km,normamps=111
new linecode.BT816_BT816_4_2_2 r1=1.3643,x1=0.0833,r0=1.908,x0=0.723,units=km,normamps=125
new linecode.BT811_BT811_4_1_3 r1=2.1716,x1=0.0821,r0=2.413,x0=2.14,units=km,normamps=95
new linecode.BT107_BT106_7_1_1 r1=0.975743,x1=0.341788,r0=1.717951,x0=2.015741,units=km,normamps=149
new linecode.BT518_BT518_5_3_1 r1=0.506,x1=0.443,r0=1.523,x0=0.898,units=km,normamps=138
new linecode.BT107_BT106_7_3_1 r1=0.975743,x1=0.341788,r0=1.717951,x0=2.015741,units=km,normamps=149
new linecode.BT810_BT810_4_2_4 r1=0.851337,x1=0.16288,r0=1.70018,x0=0.683436,units=km,normamps=110
new linecode.BT503_BT503_7_2_1 r1=2.179,x1=0.585,r0=3.492,x0=2.304,units=km,normamps=82
new linecode.BT309_BT309_7_3_1 r1=0.3051,x1=0.1208,r0=1.031,x0=0.631,units=km,normamps=298
new linecode.BT314_BT314_7_3_1 r1=0.0871,x1=0.1199,r0=0.291,x0=0.454,units=km,normamps=789
new linecode.BT_BTC02_7_0_1 r1=0.001,x1=0.001,r0=0.001,x0=0.001,units=km,normamps=1000
new linecode.BT514_BT514_5_3_1 r1=0.143,x1=0.1199,r0=0.49,x0=0.481,units=km,normamps=612
new linecode.BT_BT108_7_0_1 r1=0.001,x1=0.001,r0=0.001,x0=0.001,units=km,normamps=1000
new linecode.BT311_BT311_7_3_1 r1=0.198,x1=0.1129,r0=0.695,x0=0.5,units=km,normamps=400
new linecode.BT106_BT106_7_1_1 r1=1.551743,x1=0.359387,r0=2.293951,x0=2.03334,units=km,normamps=111
new linecode.BT808_BT808_4_1_3 r1=0.9873,x1=0.0783,r0=1.161,x0=2.073,units=km,normamps=110
new linecode.BT106_BT106_7_3_1 r1=1.551743,x1=0.359387,r0=2.293951,x0=2.03334,units=km,normamps=111
new linecode.BT808_BT808_4_3_3 r1=0.9873,x1=0.0783,r0=1.161,x0=2.073,units=km,normamps=110
new linecode.BT_BTH03_7_0_1 r1=0.001,x1=0.001,r0=0.001,x0=0.001,units=km,normamps=1000
new linecode.BT508_BT508_7_3_1 r1=1.0445,x1=0.1236,r0=1.904,x0=1.136,units=km,normamps=201
new linecode.BT802_BT802_4_2_3 r1=0.7318,x1=0.0835,r0=0.889,x0=2.067,units=km,normamps=123
new linecode.BT507_BT507_7_2_1 r1=1.2047,x1=0.1255,r0=2.515,x0=1.693,units=km,normamps=150
new linecode.BT_BT207_7_0_1 r1=0.001,x1=0.001,r0=0.001,x0=0.001,units=km,normamps=1000
new linecode.BT509_BT509_7_2_1 r1=0.6569,x1=0.1208,r0=1.613,x0=0.924,units=km,normamps=232
new linecode.BT306_BT306_7_2_1 r1=0.8819,x1=0.1318,r0=2.3,x0=1.484,units=km,normamps=145
new linecode.BT312_BT312_7_3_1 r1=0.1159,x1=0.1248,r0=0.405,x0=0.484,units=km,normamps=500
new linecode.BT507_BT506_7_2_1 r1=1.2047,x1=0.1255,r0=2.515,x0=1.693,units=km,normamps=150
new linecode.BT304_BT304_5_3_1 r1=0.7349,x1=0.1287,r0=2.061,x0=1.263,units=km,normamps=93
new linecode.BT815_BT815_4_3_4 r1=2.1716,x1=0.0821,r0=3.51,x0=2.956,units=km,normamps=82
new linecode.BT207_BT207_7_2_1 r1=0.975,x1=0.857,r0=1.594,x0=1.988,units=km,normamps=151
new linecode.BT_BTH01_7_0_1 r1=0.001,x1=0.001,r0=0.001,x0=0.001,units=km,normamps=1000
new linecode.BT317_BT317_7_2_1 r1=0.2201,x1=0.1232,r0=0.716,x0=0.54,units=km,normamps=427
new linecode.BT809_BT809_4_2_4 r1=0.851376,x1=0.163022,r0=1.94898,x0=1.25992,units=km,normamps=110
new linecode.BT802_BT802_4_3_3 r1=0.7318,x1=0.0835,r0=0.889,x0=2.067,units=km,normamps=123
new linecode.BT005_BT005_7_2_1 r1=1.564,x1=1.27,r0=0.932,x0=1.161,units=km,normamps=101
new linecode.BT507_BT507_7_3_1 r1=1.2047,x1=0.1255,r0=2.515,x0=1.693,units=km,normamps=150
new linecode.BT208_BT208_7_3_1 r1=0.613,x1=0.537,r0=1.206,x0=1.774,units=km,normamps=203
new linecode.BT_BT204_7_0_1 r1=0.001,x1=0.001,r0=0.001,x0=0.001,units=km,normamps=1000
new linecode.BT108_BT106_7_3_1 r1=0.613811,x1=0.324009,r0=1.364689,x0=1.696607,units=km,normamps=201
new linecode.BT514_BT514_7_2_1 r1=0.143,x1=0.1199,r0=0.49,x0=0.481,units=km,normamps=612
new linecode.BT107_BT107_7_1_1 r1=0.975743,x1=0.341788,r0=1.717951,x0=2.015741,units=km,normamps=149
new linecode.BT302_BT302_5_2_1 r1=1.1686,x1=0.129,r0=2.682,x0=1.856,units=km,normamps=70
new linecode.BT521_BT307_7_2_1 r1=0.732,x1=0.585,r0=2.114,x0=1.341,units=km,normamps=170
new linecode.BT308_BT308_7_2_1 r1=0.3805,x1=0.1236,r0=1.25,x0=0.731,units=km,normamps=258
new linecode.BT107_BT108_7_3_1 r1=0.975743,x1=0.341788,r0=1.717951,x0=2.015741,units=km,normamps=149
new linecode.BT302_BT302_7_3_1 r1=1.1686,x1=0.129,r0=2.682,x0=1.856,units=km,normamps=70
new linecode.BT107_BT108_7_2_1 r1=0.975743,x1=0.341788,r0=1.717951,x0=2.015741,units=km,normamps=149
new linecode.BT304_BT307_7_2_1 r1=0.7349,x1=0.1287,r0=2.061,x0=1.263,units=km,normamps=93
new linecode.BT304_BT304_7_3_1 r1=0.7349,x1=0.1287,r0=2.061,x0=1.263,units=km,normamps=93
new linecode.BT_BT208_7_0_1 r1=0.001,x1=0.001,r0=0.001,x0=0.001,units=km,normamps=1000
new linecode.BT108_BT106_7_2_1 r1=0.613811,x1=0.324009,r0=1.364689,x0=1.696607,units=km,normamps=201
new linecode.BT517_BT517_7_2_1 r1=0.991,x1=0.248,r0=2.334,x0=1.538,units=km,normamps=94
new linecode.BT_BT307_7_0_1 r1=0.001,x1=0.001,r0=0.001,x0=0.001,units=km,normamps=1000
new linecode.BT513_BT509_7_2_1 r1=0.289,x1=0.255,r0=1.038,x0=0.638,units=km,normamps=386
new linecode.BT007_BT005_7_2_1 r1=0.62,x1=1.5,r0=0.909,x0=1.133,units=km,normamps=194
new linecode.BT106_BT107_7_2_1 r1=1.551743,x1=0.359387,r0=2.293951,x0=2.03334,units=km,normamps=111
new linecode.BT513_BT313_7_3_1 r1=0.289,x1=0.255,r0=1.038,x0=0.638,units=km,normamps=386
new linecode.BT814_BT814_4_1_3 r1=1.3646,x1=0.0833,r0=1.56,x0=2.11,units=km,normamps=125
new linecode.BT111_BT108_7_3_1 r1=0.306,x1=0.268,r0=0.781,x0=1.023,units=km,normamps=314
new linecode.BT105_BT106_7_2_1 r1=1.229,x1=0.3377,r0=1.977,x0=1.474,units=km,normamps=101
new linecode.BT305_BT305_7_2_1 r1=1.5222,x1=0.1337,r0=3.027,x0=2.216,units=km,normamps=109
new linecode.BT208_BT208_7_2_1 r1=0.613,x1=0.537,r0=1.206,x0=1.774,units=km,normamps=203
new linecode.BT107_BT206_7_1_1 r1=0.975743,x1=0.341788,r0=1.717951,x0=2.015741,units=km,normamps=149
new linecode.BT313_BT313_7_2_1 r1=0.1747,x1=0.114,r0=0.579,x0=0.478,units=km,normamps=498
new linecode.BT521_BT521_5_3_1 r1=0.732,x1=0.585,r0=2.114,x0=1.341,units=km,normamps=170
new linecode.BT505_BT505_7_3_1 r1=1.369,x1=0.1382,r0=2.689,x0=1.899,units=km,normamps=101
new linecode.BT007_BT008_7_3_1 r1=0.62,x1=1.5,r0=0.909,x0=1.133,units=km,normamps=194
new linecode.BT007_BT007_7_3_1 r1=0.62,x1=1.5,r0=0.909,x0=1.133,units=km,normamps=194
new linecode.BT507_BT506_7_3_1 r1=1.2047,x1=0.1255,r0=2.515,x0=1.693,units=km,normamps=150
new linecode.BT310_BT310_7_3_1 r1=0.231,x1=0.1015,r0=0.816,x0=0.494,units=km,normamps=345
new linecode.BT107_BT103_7_3_1 r1=0.975743,x1=0.341788,r0=1.717951,x0=2.015741,units=km,normamps=149
new linecode.BT519_BT519_5_2_1 r1=3.514,x1=0.1462,r0=4.427,x0=2.971,units=km,normamps=48
new linecode.BT511_BT511_7_3_1 r1=0.382,x1=0.117,r0=1.025,x0=0.618,units=km,normamps=312
new linecode.BT005_BT008_7_3_1 r1=1.564,x1=1.27,r0=0.932,x0=1.161,units=km,normamps=101
new linecode.BT513_BT509_7_3_1 r1=0.289,x1=0.255,r0=1.038,x0=0.638,units=km,normamps=386
new linecode.BT007_BT107_7_3_1 r1=0.62,x1=1.5,r0=0.909,x0=1.133,units=km,normamps=194
new linecode.BT503_BT104_7_3_1 r1=2.179,x1=0.585,r0=3.492,x0=2.304,units=km,normamps=82
new linecode.BT805_BT805_4_2_4 r1=0.248734,x1=0.116874,r0=1.09758,x0=0.63743,units=km,normamps=201
new linecode.BT302_BT302_7_2_1 r1=1.1686,x1=0.129,r0=2.682,x0=1.856,units=km,normamps=70
new linecode.BT207_BT207_7_3_1 r1=0.975,x1=0.857,r0=1.594,x0=1.988,units=km,normamps=151
new linecode.BT_BT008_7_0_1 r1=0.001,x1=0.001,r0=0.001,x0=0.001,units=km,normamps=1000
new linecode.BT_BT007_7_0_1 r1=0.001,x1=0.001,r0=0.001,x0=0.001,units=km,normamps=1000
new linecode.BT505_BT505_5_2_1 r1=1.369,x1=0.1382,r0=2.689,x0=1.899,units=km,normamps=101
new linecode.BT103_BT107_7_2_1 r1=2.469,x1=2.176,r0=3.555,x0=1.92,units=km,normamps=81
new linecode.BT308_BT307_7_2_1 r1=0.3805,x1=0.1236,r0=1.25,x0=0.731,units=km,normamps=258
new linecode.BT316_BT316_5_2_1 r1=1.9597,x1=0.1458,r0=3.398,x0=2.541,units=km,normamps=102
new linecode.BT520_BT514_7_3_1 r1=0.188,x1=0.164,r0=0.302,x0=2.549,units=km,normamps=512
new linecode.BT304_BT304_5_2_1 r1=0.7349,x1=0.1287,r0=2.061,x0=1.263,units=km,normamps=93
new linecode.BT005_BT007_7_3_1 r1=1.564,x1=1.27,r0=0.932,x0=1.161,units=km,normamps=101
new linecode.BT111_BT111_7_3_1 r1=0.306,x1=0.268,r0=0.781,x0=1.023,units=km,normamps=314
new linecode.BT505_BT001_5_3_1 r1=1.369,x1=0.1382,r0=2.689,x0=1.899,units=km,normamps=101
new linecode.BT801_BT801_4_3_3 r1=0.9873,x1=0.0818,r0=1.161,x0=2.083,units=km,normamps=99
new linecode.BT513_BT007_5_3_1 r1=0.289,x1=0.255,r0=1.038,x0=0.638,units=km,normamps=386
new linecode.BT805_BT803_4_3_4 r1=0.248734,x1=0.116874,r0=1.09758,x0=0.63743,units=km,normamps=201
new linecode.BT804_BT804_4_3_4 r1=0.5059,x1=0.08,r0=1.428,x0=1.128,units=km,normamps=180
new linecode.BT518_BT007_5_3_1 r1=0.506,x1=0.443,r0=1.523,x0=0.898,units=km,normamps=138
new linecode.BT512_BT512_5_3_1 r1=0.3029,x1=0.1164,r0=0.666,x0=0.506,units=km,normamps=390
new linecode.BT514_BT518_5_3_1 r1=0.143,x1=0.1199,r0=0.49,x0=0.481,units=km,normamps=612
new linecode.BT007_BT108_7_3_1 r1=0.62,x1=1.5,r0=0.909,x0=1.133,units=km,normamps=194
new linecode.BT005_BT003_7_2_1 r1=1.564,x1=1.27,r0=0.932,x0=1.161,units=km,normamps=101
new linecode.BT806_BT806_5_3_4 r1=0.2156,x1=0.0865,r0=0.922,x0=0.72,units=km,normamps=225
new linecode.BT007_BT006_7_3_1 r1=0.62,x1=1.5,r0=0.909,x0=1.133,units=km,normamps=194
new linecode.BT514_BT509_5_3_1 r1=0.143,x1=0.1199,r0=0.49,x0=0.481,units=km,normamps=612
new linecode.BT513_BT518_5_3_1 r1=0.289,x1=0.255,r0=1.038,x0=0.638,units=km,normamps=386
new linecode.BT_BT306_7_0_1 r1=0.001,x1=0.001,r0=0.001,x0=0.001,units=km,normamps=1000
new linecode.BT107_BT108_5_3_1 r1=0.975743,x1=0.341788,r0=1.717951,x0=2.015741,units=km,normamps=149
new linecode.BT_BT805_4_0_4 r1=0.001,x1=0.001,r0=0.001,x0=0.001,units=km,normamps=1000
new linecode.BT007_BT107_7_2_1 r1=0.62,x1=1.5,r0=0.909,x0=1.133,units=km,normamps=194
new linecode.BT_BT112_7_0_1 r1=0.001,x1=0.001,r0=0.001,x0=0.001,units=km,normamps=1000
new linecode.BT_BT006_7_0_1 r1=0.001,x1=0.001,r0=0.001,x0=0.001,units=km,normamps=1000
new linecode.BT_BT004_7_0_1 r1=0.001,x1=0.001,r0=0.001,x0=0.001,units=km,normamps=1000
new linecode.BT_BT111_7_0_1 r1=0.001,x1=0.001,r0=0.001,x0=0.001,units=km,normamps=1000
new linecode.BT106_BT108_7_3_1 r1=1.551743,x1=0.359387,r0=2.293951,x0=2.03334,units=km,normamps=111
new linecode.BT108_BT111_7_3_1 r1=0.613811,x1=0.324009,r0=1.364689,x0=1.696607,units=km,normamps=201
new linecode.BT501_BT501_7_2_1 r1=6.1079,x1=0.1578,r0=7.128,x0=3.28,units=km,normamps=48
new linecode.BT301_BT301_7_3_1 r1=3.7256,x1=0.1578,r0=4.89,x0=3.094,units=km,normamps=61
new linecode.BT006_BT005_7_3_1 r1=0.984,x1=0.8,r0=0.955,x0=1.19,units=km,normamps=136
new linecode.BT106_BT107_7_3_1 r1=1.551743,x1=0.359387,r0=2.293951,x0=2.03334,units=km,normamps=111
new linecode.BT208_BT207_7_2_1 r1=0.613,x1=0.537,r0=1.206,x0=1.774,units=km,normamps=203
new linecode.BT107_BT111_7_3_1 r1=0.975743,x1=0.341788,r0=1.717951,x0=2.015741,units=km,normamps=149
new linecode.BT514_BT520_7_3_1 r1=0.143,x1=0.1199,r0=0.49,x0=0.481,units=km,normamps=612
new linecode.BT107_BT103_7_2_1 r1=0.975743,x1=0.341788,r0=1.717951,x0=2.015741,units=km,normamps=149
new linecode.BT813_BT813_4_3_4 r1=0.7318,x1=0.0797,r0=2.057,x0=1.624,units=km,normamps=160
new linecode.BT307_BT306_7_3_1 r1=0.6361,x1=0.1255,r0=1.872,x0=1.107,units=km,normamps=192
new linecode.BT304_BT302_7_2_1 r1=0.7349,x1=0.1287,r0=2.061,x0=1.263,units=km,normamps=93
new linecode.BT_BT103_7_0_1 r1=0.001,x1=0.001,r0=0.001,x0=0.001,units=km,normamps=1000
new linecode.BT316_BT316_7_3_1 r1=1.9597,x1=0.1458,r0=3.398,x0=2.541,units=km,normamps=102
new linecode.BT005_BT011_7_2_1 r1=1.564,x1=1.27,r0=0.932,x0=1.161,units=km,normamps=101
new linecode.BT103_BT111_7_2_1 r1=2.469,x1=2.176,r0=3.555,x0=1.92,units=km,normamps=81
new linecode.BT_BT307_5_0_1 r1=0.001,x1=0.001,r0=0.001,x0=0.001,units=km,normamps=1000
new linecode.BT801_BT801_5_3_3 r1=0.9873,x1=0.0818,r0=1.161,x0=2.083,units=km,normamps=99
new linecode.BT811_BT811_4_3_3 r1=2.1716,x1=0.0821,r0=2.413,x0=2.14,units=km,normamps=95
new linecode.BT_BT803_4_0_4 r1=0.001,x1=0.001,r0=0.001,x0=0.001,units=km,normamps=1000
new linecode.BT012_BT012_7_3_1 r1=0.137,x1=0.2763,r0=0.726,x0=0.905,units=km,normamps=496
new linecode.BT806_BT806_4_3_4 r1=0.2156,x1=0.0865,r0=0.922,x0=0.72,units=km,normamps=225
new linecode.BT208_BT207_7_3_1 r1=0.613,x1=0.537,r0=1.206,x0=1.774,units=km,normamps=203
new linecode.BT506_BT506_7_2_1 r1=1.9158,x1=0.1334,r0=3.009,x0=2.21,units=km,normamps=113
new linecode.BT006_BT206_7_1_1 r1=0.984,x1=0.8,r0=0.955,x0=1.19,units=km,normamps=136
new linecode.BT107_BT011_7_3_1 r1=0.975743,x1=0.341788,r0=1.717951,x0=2.015741,units=km,normamps=149
new linecode.BT301_BT301_7_2_1 r1=3.7256,x1=0.1578,r0=4.89,x0=3.094,units=km,normamps=61
new linecode.BT_BTH02_7_0_1 r1=0.001,x1=0.001,r0=0.001,x0=0.001,units=km,normamps=1000
new linecode.BT005_BT111_7_3_1 r1=1.564,x1=1.27,r0=0.932,x0=1.161,units=km,normamps=101
new linecode.BT007_BT111_7_3_1 r1=0.62,x1=1.5,r0=0.909,x0=1.133,units=km,normamps=194
new linecode.BT005_BT111_7_2_1 r1=1.564,x1=1.27,r0=0.932,x0=1.161,units=km,normamps=101
new linecode.BT_BT506_7_0_1 r1=0.001,x1=0.001,r0=0.001,x0=0.001,units=km,normamps=1000
new linecode.BT514_BT514_5_2_1 r1=0.143,x1=0.1199,r0=0.49,x0=0.481,units=km,normamps=612
new linecode.BT103_BT103_7_2_1 r1=2.469,x1=2.176,r0=3.555,x0=1.92,units=km,normamps=81
new linecode.BT005_BT107_7_3_1 r1=1.564,x1=1.27,r0=0.932,x0=1.161,units=km,normamps=101
new linecode.BT308_BT307_7_3_1 r1=0.3805,x1=0.1236,r0=1.25,x0=0.731,units=km,normamps=258
new linecode.BT_BT011_7_0_1 r1=0.001,x1=0.001,r0=0.001,x0=0.001,units=km,normamps=1000
new linecode.BT207_BT207_7_1_1 r1=0.975,x1=0.857,r0=1.594,x0=1.988,units=km,normamps=151
new linecode.BT207_BT206_7_2_1 r1=0.975,x1=0.857,r0=1.594,x0=1.988,units=km,normamps=151
new linecode.BT305_BT305_7_3_1 r1=1.5222,x1=0.1337,r0=3.027,x0=2.216,units=km,normamps=109
new linecode.BT_BT309_5_0_1 r1=0.001,x1=0.001,r0=0.001,x0=0.001,units=km,normamps=1000
new linecode.BT508_BT507_7_3_1 r1=1.0445,x1=0.1236,r0=1.904,x0=1.136,units=km,normamps=201
new linecode.BT107_BT206_7_2_1 r1=0.975743,x1=0.341788,r0=1.717951,x0=2.015741,units=km,normamps=149
new linecode.BT307_BT308_7_3_1 r1=0.6361,x1=0.1255,r0=1.872,x0=1.107,units=km,normamps=192
new linecode.BT_BT109_7_0_1 r1=0.001,x1=0.001,r0=0.001,x0=0.001,units=km,normamps=1000
new linecode.BT503_BT104_5_3_1 r1=2.179,x1=0.585,r0=3.492,x0=2.304,units=km,normamps=82
new linecode.BT513_BT504_7_3_1 r1=0.289,x1=0.255,r0=1.038,x0=0.638,units=km,normamps=386
new linecode.BT108_BT106_7_1_1 r1=0.613811,x1=0.324009,r0=1.364689,x0=1.696607,units=km,normamps=201
new linecode.BT008_BT008_7_3_1 r1=0.389,x1=0.45,r0=0.853,x0=1.062,units=km,normamps=252
new linecode.BT517_BT517_5_2_1 r1=0.991,x1=0.248,r0=2.334,x0=1.538,units=km,normamps=94
new linecode.BT103_BT103_7_3_1 r1=2.469,x1=2.176,r0=3.555,x0=1.92,units=km,normamps=81
new linecode.BT517_BT517_5_3_1 r1=0.991,x1=0.248,r0=2.334,x0=1.538,units=km,normamps=94
new linecode.BT007_BT011_7_3_1 r1=0.62,x1=1.5,r0=0.909,x0=1.133,units=km,normamps=194
new linecode.BT316_BT307_7_2_1 r1=1.9597,x1=0.1458,r0=3.398,x0=2.541,units=km,normamps=102
new linecode.BT207_BT206_7_1_1 r1=0.975,x1=0.857,r0=1.594,x0=1.988,units=km,normamps=151
new linecode.BT206_BT106_7_1_1 r1=1.551,x1=1.361,r0=2.202,x0=1.984,units=km,normamps=112
new linecode.BT315_BT315_5_3_1 r1=13.0642,x1=0.1804,r0=14.196,x0=3.484,units=km,normamps=12
new linecode.BT_BT511_7_0_1 r1=0.001,x1=0.001,r0=0.001,x0=0.001,units=km,normamps=1000
...